/*---------------------------------------------------------------------------*\
| =========                 |                                                 |
| \\      /  F ield         | OpenFOAM: The Open Source CFD Toolbox           |
|  \\    /   O peration     | Version:  2412                                  |
|   \\  /    A nd           | Website:  www.openfoam.com                      |
|    \\/     M anipulation  |                                                 |
\*---------------------------------------------------------------------------*/
Build  : _8dbc61e11c-20241220 OPENFOAM=2412 version=v2412
Arch   : "LSB;label=32;scalar=64"
Exec   : extrudeMesh
Date   : Jun 07 2026
Time   : 12:04:21
Host   : franciscos-MacBook-Pro.local
PID    : 65990
I/O    : uncollated
Case   : /Users/tovar/OpenFOAM/tovar-v2412/run/hydrodynamic_age/extrudeMesh/polyline
nProcs : 1
trapFpe: Floating point exception trapping enabled (FOAM_SIGFPE).
fileModificationChecking : Monitoring run-time modified files using timeStampMaster (fileModificationSkew 5, maxFileModificationPolls 20)
allowSystemOperations : Allowing user-supplied system call operations

// * * * * * * * * * * * * * * * * * * * * * * * * * * * * * * * * * * * * * //
Create time

Create mesh for time = 0

Selecting extrudeModel polyline
Selected extrudeModel for polyline using coeffs 
{
    vertices        151 ( ( 0 0 0 ) ( 5.959596 0 0 ) ( 9.7602278 -0.038371532 0 ) ( 97.214669 -4.6393933 0 ) ( 183.9312 -16.874282 0 ) ( 269.24474 -36.649203 0 ) ( 352.501 -63.812494 0 ) ( 433.06144 -98.155827 0 ) ( 510.30821 -139.41581 0 ) ( 583.64886 -187.27599 0 ) ( 652.52091 -241.36933 0 ) ( 716.39616 -301.28094 0 ) ( 774.78472 -366.55134 0 ) ( 827.23877 -436.67994 0 ) ( 873.35603 -511.1289 0 ) ( 912.7828 -589.32723 0 ) ( 945.2167 -670.67519 0 ) ( 970.40897 -754.54889 0 ) ( 988.16641 -840.30507 0 ) ( 998.35283 -927.28602 0 ) ( 1000.8901 -1014.8246 0 ) ( 995.75878 -1102.2496 0 ) ( 982.99819 -1188.8903 0 ) ( 962.70623 -1274.0824 0 ) ( 935.0385 -1357.1723 0 ) ( 900.20721 -1437.523 0 ) ( 858.47951 -1514.5181 0 ) ( 810.1754 -1587.5672 0 ) ( 755.92255 -1656.28 0 ) ( 703.94269 -1726.5434 0 ) ( 658.29655 -1801.0772 0 ) ( 619.33282 -1879.3119 0 ) ( 587.34914 -1960.6501 0 ) ( 562.58983 -2044.4703 0 ) ( 545.24401 -2130.1323 0 ) ( 535.4442 -2216.9817 0 ) ( 533.26524 -2304.355 0 ) ( 538.72379 -2391.5849 0 ) ( 551.77815 -2478.005 0 ) ( 572.32859 -2562.9552 0 ) ( 600.21814 -2645.7865 0 ) ( 635.23375 -2725.8662 0 ) ( 677.10794 -2802.5826 0 ) ( 725.52085 -2875.3496 0 ) ( 780.10265 -2943.6115 0 ) ( 840.43639 -3006.8467 0 ) ( 906.06121 -3064.5722 0 ) ( 976.4758 -3116.3471 0 ) ( 1051.1423 -3161.7758 0 ) ( 1129.4903 -3200.5114 0 ) ( 1210.9213 -3232.2579 0 ) ( 1294.8133 -3256.7728 0 ) ( 1380.5255 -3273.8689 0 ) ( 1467.403 -3283.4156 0 ) ( 1554.7824 -3285.3399 0 ) ( 1641.996 -3279.6272 0 ) ( 1728.3777 -3266.321 0 ) ( 1813.2676 -3245.5231 0 ) ( 1896.0173 -3217.3922 0 ) ( 1975.9946 -3182.1434 0 ) ( 2052.5886 -3140.0458 0 ) ( 2125.2143 -3091.4211 0 ) ( 2193.3168 -3036.6406 0 ) ( 2256.3759 -2976.1228 0 ) ( 2313.9099 -2910.33 0 ) ( 2365.4793 -2839.7648 0 ) ( 2410.6903 -2764.9663 0 ) ( 2449.1973 -2686.5058 0 ) ( 2480.7064 -2604.9826 0 ) ( 2504.9767 -2521.0195 0 ) ( 2521.823 -2435.2578 0 ) ( 2531.1164 -2348.3528 0 ) ( 2532.7861 -2260.9682 0 ) ( 2526.8192 -2173.7716 0 ) ( 2513.2614 -2087.4291 0 ) ( 2492.2161 -2002.6001 0 ) ( 2463.8443 -1919.9328 0 ) ( 2428.3625 -1840.0585 0 ) ( 2386.0419 -1763.5875 0 ) ( 2337.2057 -1691.1039 0 ) ( 2282.227 -1623.1613 0 ) ( 2221.5257 -1560.2789 0 ) ( 2156.0077 -1502.4099 0 ) ( 2093.1449 -1441.6882 0 ) ( 2035.8242 -1375.7095 0 ) ( 1984.4835 -1304.9777 0 ) ( 1939.515 -1230.0332 0 ) ( 1901.2622 -1151.4483 0 ) ( 1870.0173 -1069.8235 0 ) ( 1846.019 -985.78229 0 ) ( 1829.4505 -899.96657 0 ) ( 1820.4385 -813.0319 0 ) ( 1819.0518 -725.64238 0 ) ( 1825.301 -638.46555 0 ) ( 1839.1384 -552.16735 0 ) ( 1860.4582 -467.40699 0 ) ( 1889.0976 -384.83196 0 ) ( 1924.8378 -305.07302 0 ) ( 1967.4058 -228.73944 0 ) ( 2016.4765 -156.41432 0 ) ( 2071.6749 -88.650153 0 ) ( 2132.5795 -25.964568 0 ) ( 2198.725 31.163586 0 ) ( 2269.6061 82.297916 0 ) ( 2344.6814 127.04781 0 ) ( 2423.3774 165.07144 0 ) ( 2505.0929 196.07834 0 ) ( 2589.2037 219.83166 0 ) ( 2675.0673 236.14995 0 ) ( 2762.0279 244.90855 0 ) ( 2849.4211 246.04056 0 ) ( 2936.5793 239.53733 0 ) ( 3022.8368 225.44854 0 ) ( 3107.5347 203.88182 0 ) ( 3190.0259 175.0019 0 ) ( 3269.6804 139.0294 0 ) ( 3345.8896 96.239097 0 ) ( 3418.0714 46.957872 0 ) ( 3485.6744 -8.4378282 0 ) ( 3548.1822 -69.524843 0 ) ( 3605.1174 -135.83654 0 ) ( 3656.0449 -206.86637 0 ) ( 3700.5758 -282.07175 0 ) ( 3738.37 -360.87819 0 ) ( 3769.1386 -442.68371 0 ) ( 3792.6467 -526.86341 0 ) ( 3808.7147 -612.77424 0 ) ( 3817.2198 -699.75996 0 ) ( 3818.0971 -787.15608 0 ) ( 3811.3399 -874.295 0 ) ( 3796.9998 -960.51109 0 ) ( 3775.1863 -1045.1457 0 ) ( 3746.0661 -1127.5524 0 ) ( 3709.8617 -1207.1017 0 ) ( 3666.8494 -1283.1859 0 ) ( 3617.3581 -1355.2238 0 ) ( 3562.7024 -1423.4511 0 ) ( 3511.959 -1494.6126 0 ) ( 3467.623 -1569.9331 0 ) ( 3430.0332 -1648.8372 0 ) ( 3399.4766 -1730.7221 0 ) ( 3376.1866 -1814.9625 0 ) ( 3360.3412 -1900.9146 0 ) ( 3352.0615 -1987.9221 0 ) ( 3351.4106 -2075.3202 0 ) ( 3358.3935 -2162.4413 0 ) ( 3372.9569 -2248.62 0 ) ( 3394.9895 -2333.1978 0 ) ( 3424.3231 -2415.5288 0 ) ( 3460.7335 -2494.984 0 ) ( 3503.9427 -2570.9565 0 ) );
    edges           ( line 0 1 line 1 2 arc 2 3 ( 53.53784 -1.381066 0 ) arc 3 4 ( 140.70693 -9.8071031 0 ) arc 4 5 ( 226.80455 -25.827374 0 ) arc 5 6 ( 311.17037 -49.319012 0 ) arc 6 7 ( 393.15735 -80.101849 0 ) arc 7 8 ( 472.13671 -117.9398 0 ) arc 8 9 ( 547.5027 -162.54266 0 ) arc 9 10 ( 618.67733 -213.56836 0 ) arc 10 11 ( 685.1147 -270.62556 0 ) arc 11 12 ( 746.3053 -333.27666 0 ) arc 12 13 ( 801.77981 -401.04115 0 ) arc 13 14 ( 851.11278 -473.39934 0 ) arc 14 15 ( 893.92586 -549.79626 0 ) arc 15 16 ( 929.89069 -629.64599 0 ) arc 16 17 ( 958.73143 -712.33613 0 ) arc 17 18 ( 980.22691 -797.2325 0 ) arc 18 19 ( 994.21226 -883.68398 0 ) arc 19 20 ( 1000.5802 -971.02755 0 ) arc 20 21 ( 999.28194 -1058.5933 0 ) arc 21 22 ( 990.32739 -1145.7097 0 ) arc 22 23 ( 973.78525 -1231.7086 0 ) arc 23 24 ( 949.78238 -1315.9304 0 ) arc 24 25 ( 918.50287 -1397.7292 0 ) arc 25 26 ( 880.18662 -1476.4776 0 ) arc 26 27 ( 835.1275 -1551.5717 0 ) arc 27 28 ( 783.67108 -1622.4355 0 ) arc 28 29 ( 729.16462 -1690.8435 0 ) arc 29 30 ( 680.30494 -1763.3114 0 ) arc 30 31 ( 637.95956 -1839.7687 0 ) arc 31 32 ( 602.45193 -1919.6314 0 ) arc 32 33 ( 574.05331 -2002.2896 0 ) arc 33 34 ( 552.98061 -2087.1117 0 ) arc 34 35 ( 539.39482 -2173.4499 0 ) arc 35 36 ( 533.3997 -2260.6445 0 ) arc 36 37 ( 535.04107 -2348.0296 0 ) arc 37 38 ( 544.30637 -2434.9377 0 ) arc 38 39 ( 561.12484 -2520.7047 0 ) arc 39 40 ( 585.368 -2604.6757 0 ) arc 40 41 ( 616.85065 -2686.2091 0 ) arc 41 42 ( 655.33232 -2764.6821 0 ) arc 42 43 ( 700.51903 -2839.4953 0 ) arc 43 44 ( 752.06563 -2910.0772 0 ) arc 44 45 ( 809.57834 -2975.8885 0 ) arc 45 46 ( 872.61784 -3036.4267 0 ) arc 46 47 ( 940.70259 -3091.2293 0 ) arc 47 48 ( 1013.3125 -3139.8776 0 ) arc 48 49 ( 1089.8929 -3181.9999 0 ) arc 49 50 ( 1169.8588 -3217.2747 0 ) arc 50 51 ( 1252.5993 -3245.4323 0 ) arc 51 52 ( 1337.4825 -3266.2577 0 ) arc 52 53 ( 1423.8599 -3279.5918 0 ) arc 53 54 ( 1511.0717 -3285.3328 0 ) arc 54 55 ( 1598.4516 -3283.4368 0 ) arc 55 56 ( 1685.3323 -3273.9183 0 ) arc 56 57 ( 1771.05 -3256.8499 0 ) arc 57 58 ( 1854.9499 -3232.3621 0 ) arc 58 59 ( 1936.3912 -3200.642 0 ) arc 59 60 ( 2014.7518 -3161.9318 0 ) arc 60 61 ( 2089.4329 -3116.5273 0 ) arc 61 62 ( 2159.8643 -3064.7752 0 ) arc 62 63 ( 2225.5078 -3007.0709 0 ) arc 63 64 ( 2285.862 -2943.8553 0 ) arc 64 65 ( 2340.4659 -2875.6111 0 ) arc 65 66 ( 2388.9024 -2802.8597 0 ) arc 66 67 ( 2430.8014 -2726.1569 0 ) arc 67 68 ( 2465.8429 -2646.0886 0 ) arc 68 69 ( 2493.7593 -2563.2663 0 ) arc 69 70 ( 2514.3373 -2478.3228 0 ) arc 70 71 ( 2527.4196 -2391.9069 0 ) arc 71 72 ( 2532.9064 -2304.6788 0 ) arc 72 73 ( 2530.7557 -2217.3047 0 ) arc 73 74 ( 2520.984 -2130.4522 0 ) arc 74 75 ( 2503.666 -2044.7846 0 ) arc 75 76 ( 2478.9338 -1960.9563 0 ) arc 76 77 ( 2446.9765 -1879.6078 0 ) arc 77 78 ( 2408.0381 -1801.3605 0 ) arc 78 79 ( 2362.4161 -1726.8119 0 ) arc 79 80 ( 2310.459 -1656.5317 0 ) arc 80 81 ( 2252.5636 -1591.0566 0 ) arc 81 82 ( 2189.1724 -1530.8869 0 ) arc 82 83 ( 2123.9126 -1472.7362 0 ) arc 83 84 ( 2063.7634 -1409.3254 0 ) arc 84 85 ( 2009.3807 -1340.9048 0 ) arc 85 86 ( 1961.1801 -1267.9969 0 ) arc 86 87 ( 1919.5297 -1191.1589 0 ) arc 87 88 ( 1884.7476 -1110.9775 0 ) arc 88 89 ( 1857.0995 -1028.0652 0 ) arc 89 90 ( 1836.7967 -943.05552 0 ) arc 90 91 ( 1823.9943 -856.59774 0 ) arc 91 92 ( 1818.79 -769.3523 0 ) arc 92 93 ( 1821.2236 -681.98566 0 ) arc 93 94 ( 1831.2764 -595.1652 0 ) arc 94 95 ( 1848.8718 -509.55414 0 ) arc 95 96 ( 1873.8753 -425.80644 0 ) arc 96 97 ( 1906.0959 -344.56184 0 ) arc 97 98 ( 1945.2874 -266.44095 0 ) arc 98 99 ( 1991.1506 -192.04052 0 ) arc 99 100 ( 2043.335 -121.9289 0 ) arc 100 101 ( 2101.442 -56.641656 0 ) arc 101 102 ( 2165.0278 3.3224985 0 ) arc 102 103 ( 2233.6066 57.505502 0 ) arc 103 104 ( 2306.6546 105.49346 0 ) arc 104 105 ( 2383.6138 146.9198 0 ) arc 105 106 ( 2463.8962 181.46807 0 ) arc 106 107 ( 2546.8886 208.87436 0 ) arc 107 108 ( 2631.9572 228.92932 0 ) arc 108 109 ( 2718.4519 241.47975 0 ) arc 109 110 ( 2805.7121 246.42979 0 ) arc 110 111 ( 2893.0713 243.74161 0 ) arc 111 112 ( 2979.8621 233.43576 0 ) arc 112 113 ( 3065.4215 215.59095 0 ) arc 113 114 ( 3149.096 190.34351 0 ) arc 114 115 ( 3230.2463 157.88629 0 ) arc 115 116 ( 3308.2527 118.46723 0 ) arc 116 117 ( 3382.5191 72.387452 0 ) arc 117 118 ( 3452.4784 19.998942 0 ) arc 118 119 ( 3517.596 -38.298107 0 ) arc 119 120 ( 3577.3746 -102.05837 0 ) arc 120 121 ( 3631.3575 -170.7948 0 ) arc 121 122 ( 3679.1324 -243.98232 0 ) arc 122 123 ( 3720.3343 -321.06187 0 ) arc 123 124 ( 3754.6484 -401.44464 0 ) arc 124 125 ( 3781.8127 -484.51661 0 ) arc 125 126 ( 3801.6197 -569.6432 0 ) arc 126 127 ( 3813.918 -656.17414 0 ) arc 127 128 ( 3818.6137 -743.44843 0 ) arc 128 129 ( 3815.671 -830.7994 0 ) arc 129 130 ( 3805.1122 -917.55979 0 ) arc 130 131 ( 3787.0182 -1003.0668 0 ) arc 131 132 ( 3761.527 -1086.6674 0 ) arc 132 133 ( 3728.8334 -1167.7228 0 ) arc 133 134 ( 3689.1872 -1245.6139 0 ) arc 134 135 ( 3642.8912 -1319.7458 0 ) arc 135 136 ( 3590.299 -1389.5521 0 ) arc 136 137 ( 3536.5529 -1458.4772 0 ) arc 137 138 ( 3488.9677 -1531.7883 0 ) arc 138 139 ( 3447.9657 -1608.9743 0 ) arc 139 140 ( 3413.8599 -1689.4457 0 ) arc 140 141 ( 3386.9108 -1772.5877 0 ) arc 141 142 ( 3367.3245 -1857.7654 0 ) arc 142 143 ( 3355.2503 -1944.3279 0 ) arc 143 144 ( 3350.7807 -2031.614 0 ) arc 144 145 ( 3353.9497 -2118.9571 0 ) arc 145 146 ( 3364.7332 -2205.6898 0 ) arc 146 147 ( 3383.0487 -2291.1497 0 ) arc 147 148 ( 3408.7564 -2374.6839 0 ) arc 148 149 ( 3441.6598 -2455.6544 0 ) arc 149 150 ( 3481.5077 -2533.4426 0 ) );
    toleranceCheck  1;
}

Extruding from surface using model polyline
Collapsing edges < 1 of bounding box

Extruding surfaceMesh read from file "/Users/tovar/OpenFOAM/tovar-v2412/run/hydrodynamic_age/extrudeMesh/polyline/constant/triSurface/outlet.vtk"



--> FOAM FATAL ERROR: (openfoam-2412)
Cannot read file "/Users/tovar/OpenFOAM/tovar-v2412/run/hydrodynamic_age/extrudeMesh/polyline/constant/triSurface/outlet.vtk"


    From virtual bool Foam::fileFormats::VTKsurfaceFormat<Foam::face>::read(const fileName &) [Face = Foam::face]
    in file surfaceFormats/vtk/VTKsurfaceFormat.C at line 99.

FOAM exiting

